Infrared Spectrum: caffeine
Formula: C 8 H 10 N 4 O 2
CAS: 58-08-2
Resolution: 1.93055
Origin: EPA1100.SPC
1/CM	TRANSMITTANCE
449.413	99.3105
459.066	97.0499
468.718	93.1098
478.371	91.8323
488.024	97.9479
497.677	100.46
507.329	99.9989
516.982	99.5395
526.635	99.9989
536.288	99.9989
545.94	99.7689
555.593	99.7689
565.246	100.229
574.899	99.7689
584.551	99.3105
594.204	97.7227
603.857	95.4982
613.51	96.1602
623.162	99.7689
632.815	99.7689
642.468	99.3105
652.121	99.5395
661.773	99.9989
671.426	99.5395
681.079	99.5395
690.732	99.0821
700.384	99.0821
710.037	99.3105
719.69	99.0821
729.343	97.7227
738.995	93.1098
748.648	91.4103
758.301	92.044
767.954	93.3244
777.606	97.0499
787.259	99.5395
796.912	99.0821
806.564	98.1737
816.217	97.4979
825.87	94.6227
835.523	95.4982
845.175	97.9479
854.828	98.8542
864.481	99.5395
874.134	99.5395
883.786	99.7689
893.439	99.3105
903.092	99.7689
912.745	99.3105
922.397	97.9479
932.05	98.1737
941.703	99.3105
951.356	98.8542
961.008	96.604
970.661	90.7811
980.314	89.5355
989.967	96.604
999.619	97.4979
1009.27	91.6211
1018.92	79.7986
1028.58	80.3517
1038.23	92.4688
1047.88	97.0499
1057.54	96.8267
1067.19	97.0499
1076.84	97.4979
1086.49	97.7227
1096.15	98.1737
1105.8	98.4
1115.45	98.4
1125.11	97.9479
1134.76	97.4979
1144.41	97.4979
1154.06	97.7227
1163.72	97.4979
1173.37	96.1602
1183.02	93.1098
1192.67	90.364
1202.33	90.5723
1211.98	90.1561
1221.63	87.4974
1231.29	75.3347
1240.94	73.6199
1250.59	88.307
1260.24	92.4688
1269.9	92.2561
1279.55	88.1039
1289.2	88.5106
1298.85	94.8408
1308.51	95.7184
1318.16	93.1098
1327.81	86.6952
1337.47	85.9004
1347.12	85.1129
1356.77	78.7037
1366.42	82.4129
1376.08	86.6952
1385.73	86.4959
1395.38	86.0984
1405.03	83.752
1414.69	77.2672
1424.34	79.9826
1433.99	83.1755
1443.65	82.0343
1453.3	73.1131
1462.95	67.4521
1472.6	66.2209
1482.26	65.9167
1491.91	77.6239
1501.56	85.9004
1511.21	89.5355
1520.87	86.6952
1530.52	79.2493
1540.17	70.631
1549.83	64.2681
1559.48	74.3011
1569.13	87.2962
1578.78	91.2001
1588.44	89.9488
1598.09	80.3517
1607.74	72.2762
1617.39	82.4129
1627.05	93.5396
1636.7	93.9713
1646.35	89.9488
1656.01	79.6151
1665.66	68.5481
1675.31	34.1976
1684.96	8.76991
1694.62	13.9314
1704.27	46.1313
1713.92	40.2713
1723.58	20.9892
1733.23	34.4346
1742.88	75.3347
1752.53	89.3296
1762.19	91.4103
1771.84	93.5396
1781.49	96.1602
1791.14	97.2737
1800.8	97.7227
1810.45	97.4979
1820.1	97.9479
1829.76	98.1737
1839.41	98.8542
1849.06	99.0821
1858.71	98.6269
1868.37	99.0821
1878.02	99.5395
1887.67	99.5395
1897.32	99.7689
1906.98	99.5395
1916.63	99.5395
1926.28	99.7689
1935.94	99.7689
1945.59	99.7689
1955.24	99.5395
1964.89	99.7689
1974.55	99.9989
1984.2	99.7689
1993.85	99.7689
2003.5	99.7689
2013.16	99.7689
2022.81	99.7689
2032.46	99.5395
2042.12	99.9989
2051.77	99.7689
2061.42	99.9989
2071.07	99.9989
2080.73	99.9989
2090.38	99.9989
2100.03	99.9989
2109.68	99.7689
2119.34	99.9989
2128.99	99.7689
2138.64	99.9989
2148.3	99.9989
2157.95	99.9989
2167.6	99.7689
2177.25	99.7689
2186.91	99.9989
2196.56	99.7689
2206.21	99.7689
2215.86	99.9989
2225.52	99.9989
2235.17	99.7689
2244.82	99.7689
2254.48	99.7689
2264.13	99.7689
2273.78	99.7689
2283.43	99.7689
2293.09	99.3105
2302.74	99.0821
2312.39	98.8542
2322.05	98.8542
2331.7	98.4
2341.35	98.4
2351	98.4
2360.66	98.6269
2370.31	98.6269
2379.96	99.3105
2389.61	99.5395
2399.27	99.5395
2408.92	99.7689
2418.57	99.7689
2428.23	99.7689
2437.88	99.9989
2447.53	99.9989
2457.18	99.9989
2466.84	99.7689
2476.49	99.7689
2486.14	99.5395
2495.79	99.7689
2505.45	99.9989
2515.1	99.9989
2524.75	99.7689
2534.41	99.7689
2544.06	99.7689
2553.71	99.5395
2563.36	99.7689
2573.02	99.5395
2582.67	99.5395
2592.32	99.5395
2601.97	99.5395
2611.63	99.7689
2621.28	99.7689
2630.93	99.9989
2640.59	99.7689
2650.24	99.7689
2659.89	99.9989
2669.54	99.7689
2679.2	99.7689
2688.85	99.9989
2698.5	99.9989
2708.15	99.9989
2717.81	99.7689
2727.46	99.7689
2737.11	99.7689
2746.77	99.5395
2756.42	99.5395
2766.07	99.5395
2775.72	99.7689
2785.38	99.5395
2795.03	99.7689
2804.68	99.3105
2814.34	99.0821
2823.99	98.6269
2833.64	98.8542
2843.29	98.8542
2852.95	98.4
2862.6	98.1737
2872.25	97.7227
2881.9	97.2737
2891.56	96.604
2901.21	95.4982
2910.86	95.2786
2920.52	95.0595
2930.17	94.1879
2939.82	92.044
2949.47	88.307
2959.13	83.9451
2968.78	83.752
2978.43	88.307
2988.08	93.1098
2997.74	95.7184
3007.39	96.3819
3017.04	97.4979
3026.7	98.1737
3036.35	98.8542
3046	98.8542
3055.65	98.8542
3065.31	99.0821
3074.96	99.0821
3084.61	99.0821
3094.26	99.0821
3103.92	99.3105
3113.57	99.3105
3123.22	99.3105
3132.88	99.3105
3142.53	99.9989
3152.18	99.9989
3161.83	99.9989
3171.49	100.229
3181.14	99.9989
3190.79	99.9989
3200.44	100.229
3210.1	100.229
3219.75	100.229
3229.4	99.9989
3239.06	100.229
3248.71	99.9989
3258.36	100.229
3268.01	99.9989
3277.67	100.229
3287.32	99.9989
3296.97	99.9989
3306.62	99.9989
3316.28	100.229
3325.93	100.229
3335.58	100.46
3345.24	100.46
3354.89	100.46
3364.54	99.9989
3374.19	99.9989
3383.85	99.9989
3393.5	99.0821
3403.15	98.6269
3412.81	99.7689
3422.46	100.46
3432.11	100.229
3441.76	100.692
3451.42	100.692
3461.07	100.46
3470.72	100.46
3480.37	100.229
3490.03	100.229
3499.68	100.46
3509.33	100.692
3518.99	100.229
3528.64	99.9989
3538.29	100.46
3547.94	99.9989
3557.6	100.46
3567.25	99.9989
3576.9	100.229
3586.55	99.9989
3596.21	99.9989
3605.86	100.46
3615.51	100.229
3625.17	100.692
3634.82	99.9989
3644.47	100.229
3654.12	100.229
3663.78	99.9989
3673.43	100.46
3683.08	99.9989
3692.73	99.7689
3702.39	100.229
3712.04	100.46
3721.69	100.229
3731.35	100.229
3741	100.46
3750.65	100.229
3760.3	100.229
3769.96	100.692
3779.61	100.229
3789.26	100.46
3798.91	100.46
3808.57	100.692
3818.22	100.692
3827.87	100.46
3837.53	100.46
3847.18	100.229
3856.83	100.229
3866.48	100.229
3876.14	100.692
3885.79	100.692
3895.44	100.692
3905.1	100.46
3914.75	100.46
3924.4	100.46
3934.05	100.924
3943.71	100.692
3953.36	100.229
3963.01	100.46
3972.66	100.692
3982.32	100.692
3991.97	100.46
4001.62	100.229
